[Format]      =  4.0
[Frequency]   =  0
[Precision]   =  1e-008
[MinAngle]    =  30
[DoSmartMesh] =  1
[Depth]       =  0.80000000000000004
[LengthUnits] =  millimeters
[ProblemType] =  planar
[Coordinates] =  cartesian
[ACSolver]    =  0
[PrevType]    =  0
[PrevSoln]    =  ""
[Comment]     =  "Add comments here."
[PointProps]   = 0
[BdryProps]   = 1
  <BeginBdry>
    <BdryName> = "SDI"
    <BdryType> = 3
    <A_0> = 0
    <A_1> = 0
    <A_2> = 0
    <Phi> = 0
    <c0> = 0
    <c0i> = 0
    <c1> = 0
    <c1i> = 0
    <Mu_ssd> = 0
    <Sigma_ssd> = 0
    <innerangle> = 0
    <outerangle> = 0
  <EndBdry>
[BlockProps]  = 4
  <BeginBlock>
    <BlockName> = "Air"
    <Mu_x> = 1
    <Mu_y> = 1
    <H_c> = 0
    <H_cAngle> = 0
    <J_re> = 0
    <J_im> = 0
    <Sigma> = 0
    <d_lam> = 0
    <Phi_h> = 0
    <Phi_hx> = 0
    <Phi_hy> = 0
    <LamType> = 0
    <LamFill> = 1
    <NStrands> = 0
    <WireD> = 0
    <BHPoints> = 0
  <EndBlock>
  <BeginBlock>
    <BlockName> = "Ceramic 5"
    <Mu_x> = 1.8859999999999999
    <Mu_y> = 1.8859999999999999
    <H_c> = 191262
    <H_cAngle> = 0
    <J_re> = 0
    <J_im> = 0
    <Sigma> = 0
    <d_lam> = 0
    <Phi_h> = 0
    <Phi_hx> = 0
    <Phi_hy> = 0
    <LamType> = 0
    <LamFill> = 1
    <NStrands> = 0
    <WireD> = 0
    <BHPoints> = 11
      0	0
      0.11225	9979.6124409999993
      0.119417	10822.945775
      0.15196999999999999	21699.612441000001
      0.177037	36726.279108000002
      0.23735000000000001	78449.612441000005
      0.259793	94301.612441000005
      0.31205699999999997	131847.945775
      0.33257700000000001	146865.612441
      0.354493	162718.27910799999
      0.39151000000000002	191082.325775
  <EndBlock>
  <BeginBlock>
    <BlockName> = "1010 Steel"
    <Mu_x> = 902.60000000000002
    <Mu_y> = 902.60000000000002
    <H_c> = 0
    <H_cAngle> = 0
    <J_re> = 0
    <J_im> = 0
    <Sigma> = 5.7999999999999998
    <d_lam> = 0
    <Phi_h> = 20
    <Phi_hx> = 0
    <Phi_hy> = 0
    <LamType> = 0
    <LamFill> = 1
    <NStrands> = 0
    <WireD> = 0
    <BHPoints> = 38
      0	0
      0.21186199999999999	79.577472
      0.26566499999999998	100.182101
      0.33237699999999998	126.121793
      0.414377	158.77793
      0.51381100000000002	199.88957099999999
      0.63189899999999999	251.646061
      0.76778400000000002	316.80362000000002
      0.917018	398.83212800000001
      1.0703530000000001	502.09990099999999
      1.2142550000000001	632.10632499999997
      1.3346370000000001	795.77471500000001
      1.4229810000000001	1001.821011
      1.480634	1261.2179289999999
      1.5172140000000001	1587.779301
      1.5445150000000001	1998.89571
      1.571296	2516.4606050000002
      1.6020490000000001	3168.036204
      1.638404	3988.3212819999999
      1.68049	5020.9990129999996
      1.727311	6321.0632500000002
      1.776659	7957.747155
      1.8254010000000001	10018.210114
      1.870557	12612.179292999999
      1.910809	15877.793009999999
      1.947222	19988.957103000001
      1.9823280000000001	25164.606051999999
      2.0182519999999999	31680.362036999999
      2.0553979999999998	39883.212823000002
      2.0925449999999999	50209.990126999997
      2.1280950000000001	63210.632496999999
      2.1616119999999999	79577.471546000001
      2.1946439999999998	100182.101136
      2.2303389999999998	126121.79292599999
      2.272386	158777.930096
      2.3242820000000002	199889.57102999999
      2.3893559999999998	251646.06052200001
      2.471238	316803.62037000002
  <EndBlock>
  <BeginBlock>
    <BlockName> = "Copper"
    <Mu_x> = 1
    <Mu_y> = 1
    <H_c> = 0
    <H_cAngle> = 0
    <J_re> = 0
    <J_im> = 0
    <Sigma> = 58
    <d_lam> = 0
    <Phi_h> = 0
    <Phi_hx> = 0
    <Phi_hy> = 0
    <LamType> = 0
    <LamFill> = 1
    <NStrands> = 0
    <WireD> = 0
    <BHPoints> = 0
  <EndBlock>
[CircuitProps]  = 2
  <BeginCircuit>
    <CircuitName> = "plus_current"
    <TotalAmps_re> = 0.021999999999999999
    <TotalAmps_im> = 0
    <CircuitType> = 1
  <EndCircuit>
  <BeginCircuit>
    <CircuitName> = "minus_current"
    <TotalAmps_re> = -0.021999999999999999
    <TotalAmps_im> = 0
    <CircuitType> = 1
  <EndCircuit>
[NumPoints] = 41
1.6499999999999999	4.6000000000000014	0	2
5.5499999999999998	4.6000000000000014	0	2
5.5499999999999998	-23.295200000000001	0	2
-5.5499999999999998	-23.295200000000001	0	2
-5.5499999999999998	4.6000000000000014	0	2
-1.6499999999999999	4.6000000000000014	0	2
-1.6499999999999999	2.5055000000000014	0	2
-2.2360700000000002	2	0	2
-3.8065699999999998	2	0	2
-3.8065699999999998	-1.9999999999999991	0	2
-2.5617399999999999	-1.9999999999999991	0	2
-1.6499999999999999	-2.7999999999999989	0	2
-1.6499999999999999	-8.1224600000000002	0	2
-2.1499999999999999	-8.7331119999999984	0	2
-2.1499999999999999	-20.610999999999997	0	2
2.1499999999999999	-20.610999999999997	0	2
2.1499999999999999	-8.7331119999999984	0	2
1.6499999999999999	-8.1224600000000002	0	2
1.6499999999999999	-2.5054899999999991	0	2
2.2360679999999999	-1.9999999999999991	0	2
3.8065699999999998	-1.9999999999999991	0	2
2.5617399999999999	2	0	2
3.8065699999999998	2	0	2
1.6499999999999999	2.8000000000000007	0	2
6.0093399999999999	-5.1499999999999995	0	2
8.0093399999999999	-5.1499999999999995	0	2
8.0093399999999999	-19.449999999999999	0	2
6.0093399999999999	-19.449999999999999	0	2
1.2549999999999999	-5.1499999999999995	0	2
-0.74500000000000011	-5.1499999999999995	0	2
-0.74500000000000011	-19.449999999999999	0	2
1.2549999999999999	-19.449999999999999	0	2
0	0	0	2
1.1000000000000001	0	0	2
-1.1000000000000001	0	0	2
2.6000000000000001	0	0	2
-2.6000000000000001	0	0	2
-15.5	17.100000000000001	0	0
16.399999999999999	17.100000000000001	0	0
-15.5	-30.899999999999999	0	0
16.399999999999999	-30.899999999999999	0	0
[NumSegments] = 30
0	1	-1	0	0	2
1	2	-1	0	0	2
2	3	-1	0	0	2
3	4	-1	0	0	2
4	5	-1	0	0	2
5	6	-1	0	0	2
7	8	-1	0	0	2
9	10	-1	0	0	2
11	12	-1	0	0	2
12	13	-1	0	0	2
13	14	-1	0	0	2
14	15	-1	0	0	2
15	16	-1	0	0	2
16	17	-1	0	0	2
17	18	-1	0	0	2
19	20	-1	0	0	2
21	22	-1	0	0	2
0	23	-1	0	0	2
24	25	-1	0	0	2
25	26	-1	0	0	2
26	27	-1	0	0	2
27	24	-1	0	0	2
28	29	-1	0	0	2
29	30	-1	0	0	2
30	31	-1	0	0	2
31	28	-1	0	0	2
37	39	-1	1	0	0
39	40	-1	1	0	0
40	38	-1	1	0	0
38	37	-1	1	0	0
[NumArcSegments] = 10
6	7	14.822999999999993	5	0	0	2	5
8	9	55.435999999999979	5	0	0	2	5
10	11	21.510000000000005	5	0	0	2	5
18	19	14.822700000000005	5	0	0	2	5
20	22	55.435400000000001	5	0	0	2	5
21	23	21.509900000000002	5	0	0	2	5
33	34	180	5	0	0	2	5
35	36	180	5	0	0	2	5
34	33	180	1	0	0	0	1
36	35	180	1	0	0	0	1
[NumHoles] = 0
[NumBlockLabels] = 6
8.6999999999999993	7.5999999999999996	1	-1	0	0	0	1	0
4	3.1000000000000001	3	-1	0	0	0	1	0
7.0999999999999996	-7.2000000000000002	4	-1	0	0	0	1	0
0.20000000000000001	-7.2999999999999998	4	-1	0	0	0	1	0
0.59999999999999998	1.3999999999999999	2	-1	0	90	1	1	0
0.10000000000000001	0.40000000000000002	1	-1	0	0	0	1	0
